

 <GENCASE4>  Copyright (c) 2019 by Dr Jose M. Dominguez
 All rights reserved.

 DualSPHysics is an international collaboration between University of Vigo 
 (Spain) and University of Manchester (UK). 

 Redistribution and use in source and binary forms, with or without
 modification, are permitted provided that the following conditions
 are met:
 * Redistributions of source code must retain the above copyright
   notice, this list of conditions and the following disclaimer.
 * Redistributions in binary form must reproduce the above copyright
   notice, this list of conditions and the following disclaimer in the
   documentation and/or other materials provided with the distribution.
 * Neither the name of the DualSPHysics nor the names of its contributors
   may be used to endorse or promote products derived from this software
   without specific prior written permission.

 THIS SOFTWARE IS PROVIDED BY THE COPYRIGHT HOLDERS AND CONTRIBUTORS "AS IS"
 AND ANY EXPRESS OR IMPLIED WARRANTIES, INCLUDING, BUT NOT LIMITED TO, THE
 IMPLIED WARRANTIES OF MERCHANTABILITY AND FITNESS FOR A PARTICULAR PURPOSE
 ARE DISCLAIMED. IN NO EVENT SHALL THE COPYRIGHT OWNER BE LIABLE FOR ANY
 DIRECT, INDIRECT, INCIDENTAL, SPECIAL, EXEMPLARY, OR CONSEQUENTIAL DAMAGES
 (INCLUDING, BUT NOT LIMITED TO, PROCUREMENT OF SUBSTITUTE GOODS OR SERVICES;
 LOSS OF USE, DATA, OR PROFITS; OR BUSINESS INTERRUPTION) HOWEVER CAUSED AND
 ON ANY THEORY OF LIABILITY, WHETHER IN CONTRACT, STRICT LIABILITY, OR TORT
 (INCLUDING NEGLIGENCE OR OTHERWISE) ARISING IN ANY WAY OUT OF THE USE OF
 THIS SOFTWARE, EVEN IF ADVISED OF THE POSSIBILITY OF SUCH DAMAGE. 


GenCase4 v4.0.147 (11-02-2020) 
================================
OmpThreads: 8

[LoadXML]
List: MAIN

Total operations: 18
[LoadXML-End  time:0.001s]

[Draw]
Mk size: 1 bytes
Case limits: (-0.1,0,0) - (11.4,0,1)
Distance between points: 0.03
Case domain: (0,0,0)-(382,0,32)
Domain points: 383 x 1 x 33 = 12639
Case parts: 1 x 33z
Memory: 0.00Gb 0.01Mb (12639)

List of available variables: Dp=[0.03]  PosMin_x=[-0.1]  PosMin_y=[0]  PosMin_z=[0]  PosMax_x=[11.4]  PosMax_y=[0]  PosMax_z=[1]

> MAIN
FileShapes> _Dp.vtk  shapes:12  points:8   (time:0.002s)
FileShapes> _Actual.vtk  shapes:12  points:16   (time:0.002s)
<MAIN (Operations= 14+4+1 = 19)

Triangles: 48 (0 ignored)
[Draw-End  time:2.048s]

[PreparePoints]
Computing Vtk-Cells data...  (time:0.033s)
BitSizeTot: 17 (2 + 9+1+5)
Points loaded: 2750
Sorting points by Z...
Sorting points by Mk...

List of Points:
Points -> Fixed-Boundary particles:
  block[  0] (mk: 11):    282  -->     282
Points -> Moving-Boundary particles:
  block[  1] (mk: 12):     23  -->      23
Points -> Fluid particles:
  block[  2] (mk:  1):    137  -->     137
  block[  3] (mk:  4):   2308  -->    2308

Particle summary:
  Fixed....: 282  id:(0-281)   MKs:1 (11)
  Moving...: 23  id:(282-304)   MKs:1 (12)
  Floating.: 0
  Fluid....: 2445  id:(305-2749)   MKs:2 (1,4)

Total particles: 2750 (bound=305 (fx=282 mv=23 ft=0) fluid=2445)
Total MK blocks: 4 (bound=2 (fx=1 mv=1 ft=0) fluid=2)

Maximum depth: 0.36 (automatic)
Speed of system: 1.87926 (automatic)
Speed of sound: max(coefsound*speedsystem,10*sqrt(g*depth))
Speed of sound: 37.5851 max(37.5851,18.7926)

Coefh:1.000000 (hdp:1.414214)

[PreparePoints-End  time:0.322s]

[SaveCase2D]
C:/Users/Administrator/Desktop/wave/wave_out/wave_MkCells.vtk  (time:0.002s, shapes:38, points:152)
C:/Users/Administrator/Desktop/wave/wave_out/wave.bi4<double>  (time:0.002s)
C:/Users/Administrator/Desktop/wave/wave_out/wave_All.vtk  (time: 0.002s)
C:/Users/Administrator/Desktop/wave/wave_out/wave_Bound.vtk  (time: 0.002s)
C:/Users/Administrator/Desktop/wave/wave_out/wave_Fluid.vtk  (time: 0.002s)
C:/Users/Administrator/Desktop/wave/wave_out/wave.xml  (time:0.003s)

Save files time: 0.013s

Particle limits:
  X range: -0.1 to 11 [m]
  Y range: 0 to 0 [m]
  Z range: 0 to 0.69 [m]

[SaveCase2D-End  time:0.015s]


Finished execution (code=0).

